12

 C -0.10566208 0.44754333 -0.48101439
 H -0.11505372 0.16922625 -1.53225380
 H -0.27861701 1.49817454 -0.25985033
 C 0.10566208 -0.44754333 0.48101439
 H 0.11504585 -0.16922764 1.53225423
 H 0.27860914 -1.49817592 0.25985077
 C 3.20673367 0.26721757 0.52307322
 H 2.59034543 -0.61153278 0.69776222
 H 3.47547269 0.84887494 1.40176937
 C 3.60965457 0.61153278 -0.69776222
 H 4.22604940 1.49027870 -0.87245029
 H 3.34092213 0.02987097 -1.57645744
