12

 C 0.00000000 0.00000000 0.00000000
 H 0.14432114 0.52085332 -0.94368221
 H 0.05733493 0.60879667 0.89929539
 C -0.23372145 -1.30922320 0.05144226
 H -0.37805046 -1.83007513 0.99512403
 H -0.29106424 -1.91801848 -0.84785357
 C 2.76887845 -1.31069454 -0.00019664
 H 2.61946109 -1.86725016 -0.92246189
 H 2.71888302 -1.88505845 0.92189850
 C 3.00000000 0.00000000 0.00000000
 H 3.14942522 0.55655423 0.92226481
 H 3.05000330 0.57436252 -0.92209557
