12

 C -0.23866096 1.29704214 -0.17905313
 H -0.36930862 1.72537365 -1.17007089
 H -0.31394710 1.98784757 0.65747107
 C 0.00000000 0.00000000 0.00000000
 H 0.13063980 -0.42833289 0.99101820
 H 0.07527828 -0.69080682 -0.83652376
 C 3.00000000 0.00000000 0.00000000
 H 3.06818888 0.65876959 0.86256930
 H 3.13625884 0.46582326 -0.97318811
 C 2.76306137 -1.30336536 0.12820384
 H 2.69488036 -1.96213634 -0.73436502
 H 2.62681040 -1.76919001 1.10139239
