12

 C 0.12098377 0.62244553 -0.20188818
 H 0.22402668 0.87481180 -1.25466846
 H 0.22671197 1.44422100 0.50249774
 C -0.12098377 -0.62244553 0.20188818
 H -0.22403455 -0.87481041 1.25466802
 H -0.22671983 -1.44421961 -0.50249818
 C 3.00000411 0.62572655 -0.20322761
 H 2.81914190 1.43571097 0.49952910
 H 3.00831352 0.89554584 -1.25668923
 C 3.19999589 -0.62572655 0.20322761
 H 3.38086597 -1.43570958 -0.49952868
 H 3.19169435 -0.89554445 1.25668965
