12

 C 0.00000000 0.00000000 0.00000000
 H 0.07589266 0.08941705 -1.08115576
 H 0.13014640 0.91756540 0.56902420
 C -0.23880118 -1.16705580 0.59354205
 H -0.31470170 -1.25647146 1.67469737
 H -0.36895544 -2.08461981 0.02451741
 C 2.81343125 1.21727831 -0.50474053
 H 2.62602617 2.07977433 0.13058052
 H 2.83986542 1.40509867 -1.57557088
 C 3.00000000 0.00000000 0.00000000
 H 3.18741294 -0.86249463 -0.63532062
 H 2.97357369 -0.18781897 1.07083078
