12

 C 0.00000000 0.00000000 0.00000000
 H 0.10947678 0.29231416 -1.04173900
 H 0.09920727 0.79467856 0.73572875
 C -0.24186662 -1.25978490 0.35465467
 H -0.35135126 -1.55209767 1.39639323
 H -0.34108175 -2.05446207 -0.38107452
 C 2.88843863 -0.65290070 0.06410213
 H 2.72720683 -1.29526477 -0.79846706
 H 2.85715932 -1.13723417 1.03729049
 C 3.11156137 0.65290070 -0.06410213
 H 3.27280104 1.29526338 0.79846662
 H 3.14284855 1.13723279 -1.03729092
