12

 C -0.23246018 1.31020332 -0.02582466
 H -0.37936854 1.84900580 -0.95897133
 H -0.28613535 1.90189376 0.88503992
 C 0.00000000 0.00000000 0.00000000
 H 0.14690050 -0.53880387 0.93314711
 H 0.05366731 -0.59169182 -0.91086415
 C 3.00000000 0.00000000 0.00000000
 H 3.04993859 0.57409532 0.92226546
 H 3.14946369 0.55682606 -0.92209448
 C 2.76890886 -1.31069991 -0.00019766
 H 2.71897814 -1.88479661 -0.92246269
 H 2.61945304 -1.86752736 0.92189725
