12

 C 0.00000000 0.00000000 0.00000000
 H 0.15020921 0.55655441 -0.92213734
 H 0.04920231 0.57436536 0.92213689
 C -0.23112009 -1.31069482 0.00000000
 H -0.38133717 -1.86724784 0.92213689
 H -0.28033026 -1.88505879 -0.92213734
 C 2.90000000 0.00000000 0.00000000
 H 2.74979079 -0.55655441 -0.92213734
 H 2.85079769 -0.57436536 0.92213689
 C 3.13112009 1.31069482 0.00000000
 H 3.28133717 1.86724783 0.92213689
 H 3.18033027 1.88505879 -0.92213734
