12

 C -0.23799377 1.15533291 -0.61636209
 H -0.31035935 1.22414944 -1.69926578
 H -0.37098633 2.08338109 -0.06527911
 C 0.00000000 0.00000000 0.00000000
 H 0.07235771 -0.06881792 1.08290412
 H 0.13298469 -0.92804956 -0.55108254
 C 3.14101602 -1.20767781 0.50474052
 H 3.25990365 -2.08225528 -0.13058055
 H 3.23009423 -1.37513025 1.57557087
 C 2.90000000 0.00000000 0.00000000
 H 2.78112023 0.87457886 0.63532063
 H 2.81092965 0.16745383 -1.07083079
