12

 C -0.12072093 0.60954312 -0.23815540
 H -0.21384233 0.80129962 -1.30455623
 H -0.23593281 1.46966017 0.41726643
 C 0.12072093 -0.60954312 0.23815540
 H 0.21383447 -0.80130101 1.30455666
 H 0.23592495 -1.46966156 -0.41726599
 C 3.12097642 -0.60949298 0.23815407
 H 3.22712365 -1.47120810 -0.41669913
 H 3.22360338 -0.79956492 1.30398391
 C 2.87902358 0.60949298 -0.23815407
 H 2.77288422 1.47120946 0.41669861
 H 2.77640449 0.79956628 -1.30398443
