31
ligand001.xyz
P          4.01048        4.48915        0.90894
C          4.49176        1.35772       -0.60185
C          3.42659        2.04758       -0.18271
C          3.39827        2.76810        1.13808
C          3.35951        5.02780        0.17985
C          2.00138        5.17347        0.47992
C          1.16630        5.90785       -0.36308
C          1.69120        6.53383       -1.49361
C          3.05675        6.44123       -1.76378
C          3.89278        5.70719       -0.92148
C          4.34959        5.09439        1.80292
C          3.55793        5.09633        2.96054
C          3.97808        5.74402        4.12320
C          5.17325        6.46083        4.13227
C          5.94594        6.51159        2.97338
C          5.55144        5.81561        1.82943
H          4.45821        0.84496       -1.56242
H          5.39652        1.29267        0.00088
H          2.53731        2.07955       -0.81241
H          4.02303        2.24920        1.88049
H          2.35234        2.77952        1.48015
H          1.57498        4.70715        1.36414
H          0.10898        5.99586       -0.13608
H          1.04246        7.10247       -2.15113
H          3.47033        6.94351       -2.63163
H          4.95518        5.66155       -1.14445
H          2.60981        4.56605        2.99017
H          3.37219        5.69157        5.02114
H          5.49607        6.97757        5.02957
H          6.86648        7.08506        2.96494
H          6.20594        5.87627        0.96909
31
ligand001.xyz
P          4.01048        4.48915        0.90894
C          2.32693        1.53978       -0.74758
C          3.42659        2.04758       -0.18271
C          3.39827        2.76810        1.13808
C          3.35951        5.02780        0.17985
C          2.00138        5.17347        0.47992
C          1.16630        5.90785       -0.36308
C          1.69120        6.53383       -1.49361
C          3.05675        6.44123       -1.76378
C          3.89278        5.70719       -0.92148
C          4.34959        5.09439        1.80292
C          4.00004        4.65851        3.08925
C          4.47483        5.31084        4.22804
C          5.25921        6.45601        4.10292
C          5.57204        6.93177        2.83074
C          5.14341        6.24470        1.69370
H          2.39912        1.03551       -1.71052
H          1.35366        1.62302       -0.26600
H          4.37978        1.95090       -0.70273
H          4.02303        2.24920        1.88049
H          2.35234        2.77952        1.48015
H          1.57498        4.70715        1.36414
H          0.10898        5.99586       -0.13608
H          1.04246        7.10247       -2.15113
H          3.47033        6.94351       -2.63163
H          4.95518        5.66155       -1.14445
H          3.37448        3.78131        3.23139
H          4.23102        4.92736        5.21275
H          5.61807        6.97412        4.98563
H          6.16359        7.83457        2.72414
H          5.43808        6.65235        0.73494
31
ligand001.xyz
P          4.01048        4.48915        0.90894
C          5.57920        2.33746        2.26518
C          4.28180        2.05025        2.12221
C          3.39827        2.76810        1.13808
C          3.35951        5.02780        0.17985
C          2.00138        5.17347        0.47992
C          1.16630        5.90785       -0.36308
C          1.69120        6.53383       -1.49361
C          3.05675        6.44123       -1.76378
C          3.89278        5.70719       -0.92148
C          4.34959        5.09439        1.80292
C          3.55793        5.09633        2.96054
C          3.97808        5.74402        4.12320
C          5.17325        6.46083        4.13227
C          5.94594        6.51159        2.97338
C          5.55144        5.81561        1.82943
H          6.17375        1.79520        2.99948
H          6.05737        3.10908        1.66346
H          3.83997        1.27719        2.75110
H          2.35634        2.79023        1.49114
H          3.45366        2.21571        0.18787
H          1.57498        4.70715        1.36414
H          0.10898        5.99586       -0.13608
H          1.04246        7.10247       -2.15113
H          3.47033        6.94351       -2.63163
H          4.95518        5.66155       -1.14445
H          2.60981        4.56605        2.99017
H          3.37219        5.69157        5.02114
H          5.49607        6.97757        5.02957
H          6.86648        7.08506        2.96494
H          6.20594        5.87627        0.96909
31
ligand001.xyz
P          4.01048        4.48915        0.90894
C          3.81712        1.54442        3.26867
C          4.28180        2.05025        2.12221
C          3.39827        2.76810        1.13808
C          3.35951        5.02780        0.17985
C          2.25125        5.72820        0.66665
C          1.45569        6.48114       -0.19792
C          1.78451        6.56958       -1.55052
C          2.92362        5.92154       -2.02885
C          3.71993        5.16839       -1.16522
C          4.34959        5.09439        1.80292
C          4.00004        4.65851        3.08925
C          4.47483        5.31084        4.22804
C          5.25921        6.45601        4.10292
C          5.57204        6.93177        2.83074
C          5.14341        6.24470        1.69370
H          4.49641        1.02438        3.94311
H          2.76738        1.63723        3.54353
H          5.33765        1.92716        1.88062
H          2.35634        2.79023        1.49114
H          3.45366        2.21571        0.18787
H          1.98633        5.68570        1.71981
H          0.58363        7.00197        0.18345
H          1.16517        7.15217       -2.22397
H          3.19202        6.00507       -3.07646
H          4.61005        4.68472       -1.55797
H          3.37448        3.78131        3.23139
H          4.23102        4.92736        5.21275
H          5.61807        6.97412        4.98563
H          6.16359        7.83457        2.72414
H          5.43808        6.65235        0.73494
31
ligand001.xyz
P          4.01048        4.48915        0.90894
C          4.49176        1.35772       -0.60185
C          3.42659        2.04758       -0.18271
C          3.39827        2.76810        1.13808
C          3.35951        5.02780        0.17985
C          2.25125        5.72820        0.66665
C          1.45569        6.48114       -0.19792
C          1.78451        6.56958       -1.55052
C          2.92362        5.92154       -2.02885
C          3.71993        5.16839       -1.16522
C          4.34959        5.09439        1.80292
C          4.59028        4.43470        3.01688
C          5.10417        5.11621        4.12108
C          5.32771        6.49019        4.05380
C          5.04411        7.16934        2.87017
C          4.58426        6.47547        1.74957
H          4.45821        0.84496       -1.56242
H          5.39652        1.29267        0.00088
H          2.53731        2.07955       -0.81241
H          4.02303        2.24920        1.88049
H          2.35234        2.77952        1.48015
H          1.98633        5.68570        1.71981
H          0.58363        7.00197        0.18345
H          1.16517        7.15217       -2.22397
H          3.19202        6.00507       -3.07646
H          4.61005        4.68472       -1.55797
H          4.41119        3.36762        3.11822
H          5.32791        4.57606        5.03450
H          5.71334        7.02592        4.91443
H          5.19441        8.24209        2.81587
H          4.40391        7.05624        0.85379
31
ligand001.xyz
P          4.01048        4.48915        0.90894
C          1.64150        2.26013        2.83159
C          1.98785        2.80489        1.66136
C          3.39827        2.76810        1.13808
C          3.35951        5.02780        0.17985
C          2.25125        5.72820        0.66665
C          1.45569        6.48114       -0.19792
C          1.78451        6.56958       -1.55052
C          2.92362        5.92154       -2.02885
C          3.71993        5.16839       -1.16522
C          4.34959        5.09439        1.80292
C          3.55793        5.09633        2.96054
C          3.97808        5.74402        4.12320
C          5.17325        6.46083        4.13227
C          5.94594        6.51159        2.97338
C          5.55144        5.81561        1.82943
H          0.60808        2.32248        3.17054
H          2.37447        1.75595        3.45982
H          1.22515        3.30874        1.06743
H          3.44658        2.22793        0.18066
H          4.01000        2.24416        1.88800
H          1.98633        5.68570        1.71981
H          0.58363        7.00197        0.18345
H          1.16517        7.15217       -2.22397
H          3.19202        6.00507       -3.07646
H          4.61005        4.68472       -1.55797
H          2.60981        4.56605        2.99017
H          3.37219        5.69157        5.02114
H          5.49607        6.97757        5.02957
H          6.86648        7.08506        2.96494
H          6.20594        5.87627        0.96909
31
ligand001.xyz
P          4.01048        4.48915        0.90894
C          4.04392        2.05480        3.43734
C          4.28180        2.05025        2.12221
C          3.39827        2.76810        1.13808
C          3.35951        5.02780        0.17985
C          2.01125        4.66591        0.09611
C          1.14280        5.36501       -0.74315
C          1.60833        6.45580       -1.47727
C          2.93833        6.85747       -1.35052
C          3.80765        6.15918       -0.51154
C          4.34959        5.09439        1.80292
C          3.38241        5.63085        2.66525
C          3.74703        6.29967        3.83466
C          5.09286        6.50336        4.13397
C          6.06562        6.02139        3.25986
C          5.69901        5.30316        2.12039
H          4.70861        1.51077        4.10739
H          3.19291        2.58985        3.85638
H          5.13928        1.49420        1.74289
H          2.35634        2.79023        1.49114
H          3.45366        2.21571        0.18787
H          1.62421        3.82906        0.67146
H          0.10368        5.06268       -0.82077
H          0.93485        6.99810       -2.13215
H          3.29746        7.71741       -1.90554
H          4.83520        6.49964       -0.41814
H          2.32207        5.51156        2.45920
H          2.98152        6.66394        4.51102
H          5.38002        7.03533        5.03449
H          7.11474        6.19441        3.47375
H          6.50175        4.93593        1.49351
31
ligand001.xyz
P          4.01048        4.48915        0.90894
C          2.32693        1.53978       -0.74758
C          3.42659        2.04758       -0.18271
C          3.39827        2.76810        1.13808
C          3.35951        5.02780        0.17985
C          2.01125        4.66591        0.09611
C          1.14280        5.36501       -0.74315
C          1.60833        6.45580       -1.47727
C          2.93833        6.85747       -1.35052
C          3.80765        6.15918       -0.51154
C          4.34959        5.09439        1.80292
C          3.38241        5.63085        2.66525
C          3.74703        6.29967        3.83466
C          5.09286        6.50336        4.13397
C          6.06562        6.02139        3.25986
C          5.69901        5.30316        2.12039
H          2.39912        1.03551       -1.71052
H          1.35366        1.62302       -0.26600
H          4.37978        1.95090       -0.70273
H          4.02303        2.24920        1.88049
H          2.35234        2.77952        1.48015
H          1.62421        3.82906        0.67146
H          0.10368        5.06268       -0.82077
H          0.93485        6.99810       -2.13215
H          3.29746        7.71741       -1.90554
H          4.83520        6.49964       -0.41814
H          2.32207        5.51156        2.45920
H          2.98152        6.66394        4.51102
H          5.38002        7.03533        5.03449
H          7.11474        6.19441        3.47375
H          6.50175        4.93593        1.49351
31
ligand001.xyz
P          4.01048        4.48915        0.90894
C          3.61535        0.72787       -0.27705
C          3.42659        2.04758       -0.18271
C          3.39827        2.76810        1.13808
C          3.35951        5.02780        0.17985
C          2.00138        5.17347        0.47992
C          1.16630        5.90785       -0.36308
C          1.69120        6.53383       -1.49361
C          3.05675        6.44123       -1.76378
C          3.89278        5.70719       -0.92148
C          4.34959        5.09439        1.80292
C          3.93524        6.42954        1.91482
C          4.24187        7.18993        3.04423
C          5.02769        6.64890        4.06016
C          5.49079        5.33986        3.93931
C          5.13499        4.56301        2.83543
H          3.61736        0.25217       -1.25707
H          3.76382        0.11291        0.60946
H          3.27226        2.62514       -1.09428
H          4.02303        2.24920        1.88049
H          2.35234        2.77952        1.48015
H          1.57498        4.70715        1.36414
H          0.10898        5.99586       -0.13608
H          1.04246        7.10247       -2.15113
H          3.47033        6.94351       -2.63163
H          4.95518        5.66155       -1.14445
H          3.33734        6.89630        1.13658
H          3.86994        8.20499        3.13071
H          5.28024        7.24148        4.93277
H          6.12094        4.91812        4.71480
H          5.50788        3.54685        2.81094
31
ligand001.xyz
P          4.01048        4.48915        0.90894
C          1.28926        1.69571        1.92184
C          1.98785        2.80489        1.66136
C          3.39827        2.76810        1.13808
C          3.35951        5.02780        0.17985
C          2.25125        5.72820        0.66665
C          1.45569        6.48114       -0.19792
C          1.78451        6.56958       -1.55052
C          2.92362        5.92154       -2.02885
C          3.71993        5.16839       -1.16522
C          4.34959        5.09439        1.80292
C          4.59028        4.43470        3.01688
C          5.10417        5.11621        4.12108
C          5.32771        6.49019        4.05380
C          5.04411        7.16934        2.87017
C          4.58426        6.47547        1.74957
H          0.27427        1.77627        2.30922
H          1.71595        0.70707        1.75862
H          1.52681        3.77496        1.84775
H          3.44658        2.22793        0.18066
H          4.01000        2.24416        1.88800
H          1.98633        5.68570        1.71981
H          0.58363        7.00197        0.18345
H          1.16517        7.15217       -2.22397
H          3.19202        6.00507       -3.07646
H          4.61005        4.68472       -1.55797
H          4.41119        3.36762        3.11822
H          5.32791        4.57606        5.03450
H          5.71334        7.02592        4.91443
H          5.19441        8.24209        2.81587
H          4.40391        7.05624        0.85379
31
ligand001.xyz
P          4.01048        4.48915        0.90894
C          2.32693        1.53978       -0.74758
C          3.42659        2.04758       -0.18271
C          3.39827        2.76810        1.13808
C          3.35951        5.02780        0.17985
C          2.69391        6.18145        0.60628
C          1.93344        6.93126       -0.29193
C          1.86327        6.55345       -1.63275
C          2.57459        5.43766       -2.07471
C          3.33542        4.68715       -1.17745
C          4.34959        5.09439        1.80292
C          3.55793        5.09633        2.96054
C          3.97808        5.74402        4.12320
C          5.17325        6.46083        4.13227
C          5.94594        6.51159        2.97338
C          5.55144        5.81561        1.82943
H          2.39912        1.03551       -1.71052
H          1.35366        1.62302       -0.26600
H          4.37978        1.95090       -0.70273
H          4.02303        2.24920        1.88049
H          2.35234        2.77952        1.48015
H          2.74806        6.50251        1.64316
H          1.40045        7.81144        0.05218
H          1.27009        7.13388       -2.33116
H          2.53710        5.15352       -3.12083
H          3.89228        3.83090       -1.54791
H          2.60981        4.56605        2.99017
H          3.37219        5.69157        5.02114
H          5.49607        6.97757        5.02957
H          6.86648        7.08506        2.96494
H          6.20594        5.87627        0.96909
31
ligand001.xyz
P          4.01048        4.48915        0.90894
C          0.92259        2.82123        0.85443
C          1.98785        2.80489        1.66136
C          3.39827        2.76810        1.13808
C          3.35951        5.02780        0.17985
C          2.69391        6.18145        0.60628
C          1.93344        6.93126       -0.29193
C          1.86327        6.55345       -1.63275
C          2.57459        5.43766       -2.07471
C          3.33542        4.68715       -1.17745
C          4.34959        5.09439        1.80292
C          3.55793        5.09633        2.96054
C          3.97808        5.74402        4.12320
C          5.17325        6.46083        4.13227
C          5.94594        6.51159        2.97338
C          5.55144        5.81561        1.82943
H         -0.07861        2.83770        1.28346
H          1.03350        2.81407       -0.22897
H          1.83263        2.80324        2.74036
H          3.44658        2.22793        0.18066
H          4.01000        2.24416        1.88800
H          2.74806        6.50251        1.64316
H          1.40045        7.81144        0.05218
H          1.27009        7.13388       -2.33116
H          2.53710        5.15352       -3.12083
H          3.89228        3.83090       -1.54791
H          2.60981        4.56605        2.99017
H          3.37219        5.69157        5.02114
H          5.49607        6.97757        5.02957
H          6.86648        7.08506        2.96494
H          6.20594        5.87627        0.96909
31
ligand001.xyz
P          4.01048        4.48915        0.90894
C          3.73183        1.02634       -0.61328
C          3.13146        2.14928       -0.20740
C          3.39827        2.76810        1.13808
C          3.35951        5.02780        0.17985
C          3.75911        5.07888       -1.15936
C          2.93836        5.67201       -2.11951
C          1.69424        6.18557       -1.75362
C          1.26596        6.08250       -0.42989
C          2.08581        5.48954        0.53108
C          4.34959        5.09439        1.80292
C          5.04677        6.29184        1.58641
C          5.40040        7.12526        2.64855
C          5.12029        6.74522        3.95982
C          4.47400        5.53281        4.19438
C          4.07066        4.72845        3.12715
H          3.49651        0.61305       -1.59336
H          4.45222        0.50964        0.01931
H          2.40939        2.62999       -0.86761
H          4.14285        2.18223        1.69765
H          2.44515        2.77421        1.68820
H          4.71763        4.67065       -1.46875
H          3.26636        5.72921       -3.15215
H          1.05674        6.64943       -2.49858
H          0.29062        6.46365       -0.14714
H          1.72456        5.40773        1.55250
H          5.30210        6.61601        0.58106
H          5.89646        8.06975        2.45355
H          5.40645        7.38338        4.78883
H          4.27160        5.21894        5.21264
H          3.55326        3.81003        3.37420

