53

  P   0.000000   0.000000   0.000000 
  C   1.695316  -2.721359  -1.019810 
  C   0.412920  -2.397338  -1.191472 
  C  -0.467596  -1.855575  -0.118825 
  C  -0.880548   0.789302  -1.459887 
  C  -2.152754   0.421855  -1.901532 
  C  -2.717588   1.075812  -3.003414 
  C  -2.010994   2.093059  -3.655340 
  C  -0.739761   2.457559  -3.203992 
  C  -0.169037   1.802014  -2.104661 
  C  -0.998772   0.652448   1.448646 
  C  -2.210796   0.092035   1.852900 
  C  -2.908879   0.658754   2.926418 
  C  -2.396801   1.782061   3.582952 
  C  -1.168934   2.321251   3.188751 
  C  -0.461933   1.752716   2.121021 
  H   2.317250  -3.096121  -1.816943 
  H   2.225100  -2.627304  -0.082857 
  H  -0.072337  -2.520211  -2.165094 
  H  -0.274902  -2.331735   0.862532 
  H  -1.536460  -2.014259  -0.336293 
  H  -2.724247  -0.365232  -1.411477 
  H  -3.707558   0.789883  -3.354916 
  H  -2.447556   2.593465  -4.517992 
  H  -0.179046   3.246924  -3.702137 
  H   0.829227   2.103033  -1.780287 
  H  -2.632603  -0.780018   1.354993 
  H  -3.853132   0.223369   3.245041 
  H  -2.952245   2.241380   4.398655 
  H  -0.762977   3.187197   3.710170 
  H   0.499598   2.190365   1.842435 
 Ni   4.000000   0.000000   0.000000 
  C   7.502922   1.110183  -2.961833 
  C   6.065528   1.352658  -3.432330 
  C   5.248244   0.427205  -2.517899 
  C   7.324770   0.089969  -1.826563 
  C   6.675499   0.797766  -0.621119 
  C   5.227843   1.013775  -1.097564 
  C   6.676695  -0.083185   0.587260 
  H   7.190844   1.747906  -0.359534 
  H   4.901570   2.076339  -1.081488 
  C   6.179350  -0.766053  -2.361162 
  H   4.222762   0.252764  -2.906413 
  H   6.416424  -1.272886  -3.324834 
  H   5.807773  -1.525859  -1.637609 
  H   8.286576  -0.404788  -1.568708 
  C   5.463976  -0.539135   1.032487 
  H   7.596804  -0.359041   1.086206 
  H   5.372446  -1.184460   1.895626 
  H   8.043248   2.028320  -2.645027 
  H   8.069515   0.627355  -3.789987 
  H   5.973576   1.001028  -4.484656 
  H   5.736186   2.412693  -3.374696 
53

  P   0.000000   0.000000   0.000000 
  C  -0.037405  -2.864879  -2.345406 
  C   0.420382  -2.430863  -1.170477 
  C  -0.448559  -1.858030  -0.103160 
  C  -0.876868   0.780392  -1.464224 
  C  -2.148403   0.396089  -1.896425 
  C  -2.734373   1.063327  -2.978951 
  C  -2.050597   2.103620  -3.618467 
  C  -0.772070   2.468966  -3.190709 
  C  -0.178658   1.800373  -2.111912 
  C  -1.005076   0.666708   1.438468 
  C  -1.805393  -0.135143   2.252469 
  C  -2.466008   0.434995   3.348440 
  C  -2.321288   1.796496   3.627810 
  C  -1.504066   2.590951   2.817475 
  C  -0.850180   2.029119   1.714840 
  H   0.603191  -3.271073  -3.116088 
  H  -1.076820  -2.846657  -2.639130 
  H   1.487716  -2.492990  -0.927097 
  H  -0.239174  -2.330638   0.877368 
  H  -1.522992  -2.009412  -0.301913 
  H  -2.702918  -0.410611  -1.415578 
  H  -3.725940   0.780629  -3.324723 
  H  -2.516622   2.633037  -4.446861 
  H  -0.238620   3.272811  -3.694002 
  H   0.825582   2.094434  -1.805127 
  H  -1.941319  -1.198786   2.062637 
  H  -3.092339  -0.184388   3.987105 
  H  -2.848267   2.236277   4.472527 
  H  -1.369689   3.646345   3.048447 
  H  -0.229929   2.677608   1.092346 
 Ni   3.600000   0.000000   0.000000 
  C   7.102922   1.110183  -2.961833 
  C   5.665528   1.352658  -3.432330 
  C   4.848244   0.427205  -2.517899 
  C   6.924770   0.089969  -1.826563 
  C   6.275499   0.797766  -0.621119 
  C   4.827843   1.013775  -1.097564 
  C   6.276695  -0.083185   0.587260 
  H   6.790844   1.747906  -0.359534 
  H   4.501570   2.076339  -1.081488 
  C   5.779350  -0.766053  -2.361162 
  H   3.822762   0.252764  -2.906413 
  H   6.016424  -1.272886  -3.324834 
  H   5.407773  -1.525859  -1.637609 
  H   7.886576  -0.404788  -1.568708 
  C   5.063976  -0.539135   1.032487 
  H   7.196804  -0.359041   1.086206 
  H   4.972446  -1.184460   1.895626 
  H   7.643248   2.028320  -2.645027 
  H   7.669515   0.627355  -3.789987 
  H   5.573576   1.001028  -4.484656 
  H   5.336186   2.412693  -3.374696 
53

  P   0.000000   0.000000   0.000000 
  C   0.809224  -2.462783   1.960870 
  C  -0.245891  -2.596239   1.157717 
  C  -0.507211  -1.849853  -0.104186 
  C  -0.921389   0.722547  -1.472611 
  C  -2.208249   0.312052  -1.824673 
  C  -2.827813   0.857854  -2.954554 
  C  -2.159978   1.820444  -3.718493 
  C  -0.877807   2.238791  -3.350233 
  C  -0.251681   1.689154  -2.224285 
  C  -0.968388   0.704653   1.443754 
  C  -2.187994   0.178426   1.869679 
  C  -2.858048   0.772331   2.945509 
  C  -2.301567   1.881393   3.590656 
  C  -1.077774   2.402250   3.159733 
  C  -0.401645   1.807532   2.086784 
  H   0.950281  -3.068186   2.844547 
  H   1.612387  -1.753570   1.821694 
  H  -1.011898  -3.348742   1.377963 
  H  -1.565962  -1.945572  -0.410671 
  H   0.093248  -2.295680  -0.926996 
  H  -2.752755  -0.426464  -1.236298 
  H  -3.828486   0.535041  -3.236965 
  H  -2.634098   2.245420  -4.599656 
  H  -0.364825   2.997180  -3.939298 
  H   0.748816   2.038825  -1.960747 
  H  -2.639139  -0.690359   1.387976 
  H  -3.815885   0.374070   3.275321 
  H  -2.818880   2.338199   4.432146 
  H  -0.657667   3.276133   3.655884 
  H   0.558828   2.222598   1.776281 
 Ni   3.700000   0.000000   0.000000 
  C   7.202922   1.110183  -2.961833 
  C   5.765528   1.352658  -3.432330 
  C   4.948244   0.427205  -2.517899 
  C   7.024770   0.089969  -1.826563 
  C   6.375499   0.797766  -0.621119 
  C   4.927843   1.013775  -1.097564 
  C   6.376695  -0.083185   0.587260 
  H   6.890844   1.747906  -0.359534 
  H   4.601570   2.076339  -1.081488 
  C   5.879350  -0.766053  -2.361162 
  H   3.922762   0.252764  -2.906413 
  H   6.116424  -1.272886  -3.324834 
  H   5.507773  -1.525859  -1.637609 
  H   7.986576  -0.404788  -1.568708 
  C   5.163976  -0.539135   1.032487 
  H   7.296804  -0.359041   1.086206 
  H   5.072446  -1.184460   1.895626 
  H   7.743248   2.028320  -2.645027 
  H   7.769515   0.627355  -3.789987 
  H   5.673576   1.001028  -4.484656 
  H   5.436186   2.412693  -3.374696 
53

  P   0.000000   0.000000   0.000000 
  C  -0.691989  -3.277211   1.944706 
  C   0.072315  -2.544328   1.133965 
  C  -0.445990  -1.860863  -0.082838 
  C  -0.912394   0.713631  -1.479992 
  C  -2.303373   0.825034  -1.525120 
  C  -2.905572   1.498389  -2.595671 
  C  -2.115514   2.053608  -3.608781 
  C  -0.726815   1.901953  -3.576053 
  C  -0.121181   1.227117  -2.508263 
  C  -0.948671   0.740437   1.435826 
  C  -1.734779  -0.005445   2.311599 
  C  -2.308180   0.614287   3.430158 
  C  -2.099691   1.975517   3.663993 
  C  -1.318001   2.723225   2.775359 
  C  -0.747724   2.108469   1.655067 
  H  -0.312501  -3.780468   2.823125 
  H  -1.749814  -3.436265   1.795705 
  H   1.146661  -2.438325   1.322290 
  H  -1.530244  -2.009470  -0.232234 
  H   0.052512  -2.273634  -0.987059 
  H  -2.938411   0.416412  -0.736961 
  H  -3.987616   1.598723  -2.634929 
  H  -2.577409   2.612939  -4.419733 
  H  -0.114545   2.320288  -4.372084 
  H   0.965912   1.134448  -2.502911 
  H  -1.918855  -1.070919   2.158851 
  H  -2.911900   0.026985   4.118264 
  H  -2.546938   2.454524   4.532115 
  H  -1.142438   3.781742   2.960845 
  H  -0.153116   2.720364   0.973958 
 Ni   3.600000   0.000000   0.000000 
  C   7.102922   1.110183  -2.961833 
  C   5.665528   1.352658  -3.432330 
  C   4.848244   0.427205  -2.517899 
  C   6.924770   0.089969  -1.826563 
  C   6.275499   0.797766  -0.621119 
  C   4.827843   1.013775  -1.097564 
  C   6.276695  -0.083185   0.587260 
  H   6.790844   1.747906  -0.359534 
  H   4.501570   2.076339  -1.081488 
  C   5.779350  -0.766053  -2.361162 
  H   3.822762   0.252764  -2.906413 
  H   6.016424  -1.272886  -3.324834 
  H   5.407773  -1.525859  -1.637609 
  H   7.886576  -0.404788  -1.568708 
  C   5.063976  -0.539135   1.032487 
  H   7.196804  -0.359041   1.086206 
  H   4.972446  -1.184460   1.895626 
  H   7.643248   2.028320  -2.645027 
  H   7.669515   0.627355  -3.789987 
  H   5.573576   1.001028  -4.484656 
  H   5.336186   2.412693  -3.374696 
53

  P   0.000000   0.000000   0.000000 
  C   1.570741  -2.860219  -1.012352 
  C   0.313586  -2.446788  -1.176261 
  C  -0.519081  -1.845215  -0.098766 
  C  -0.839293   0.775931  -1.488949 
  C  -2.224534   0.901251  -1.614425 
  C  -2.758874   1.534789  -2.742772 
  C  -1.912229   2.033704  -3.738529 
  C  -0.528125   1.894891  -3.610706 
  C   0.010907   1.258265  -2.485043 
  C  -0.968318   0.659026   1.458282 
  C  -1.223133  -0.156636   2.562216 
  C  -1.841064   0.385062   3.695894 
  C  -2.185799   1.739291   3.729276 
  C  -1.916429   2.553946   2.624286 
  C  -1.312486   2.013779   1.482873 
  H   2.151460  -3.295423  -1.810517 
  H   2.116452  -2.786866  -0.082905 
  H  -0.180939  -2.540214  -2.147259 
  H  -0.321496  -2.320543   0.883018 
  H  -1.600189  -1.952984  -0.292541 
  H  -2.908377   0.519346  -0.854874 
  H  -3.836984   1.639428  -2.846900 
  H  -2.331836   2.524154  -4.614982 
  H   0.133435   2.282766  -4.382442 
  H   1.095277   1.153660  -2.418124 
  H  -0.952622  -1.213150   2.573910 
  H  -2.050151  -0.251857   4.554297 
  H  -2.660848   2.157343   4.614959 
  H  -2.171478   3.611911   2.655388 
  H  -1.124337   2.667685   0.628881 
 Ni   3.800000   0.000000   0.000000 
  C   7.302922   1.110183  -2.961833 
  C   5.865528   1.352658  -3.432330 
  C   5.048244   0.427205  -2.517899 
  C   7.124770   0.089969  -1.826563 
  C   6.475499   0.797766  -0.621119 
  C   5.027843   1.013775  -1.097564 
  C   6.476695  -0.083185   0.587260 
  H   6.990844   1.747906  -0.359534 
  H   4.701570   2.076339  -1.081488 
  C   5.979350  -0.766053  -2.361162 
  H   4.022762   0.252764  -2.906413 
  H   6.216424  -1.272886  -3.324834 
  H   5.607773  -1.525859  -1.637609 
  H   8.086576  -0.404788  -1.568708 
  C   5.263976  -0.539135   1.032487 
  H   7.396804  -0.359041   1.086206 
  H   5.172446  -1.184460   1.895626 
  H   7.843248   2.028320  -2.645027 
  H   7.869515   0.627355  -3.789987 
  H   5.773576   1.001028  -4.484656 
  H   5.536186   2.412693  -3.374696 
53

  P   0.000000   0.000000   0.000000 
  C  -2.510075  -3.005252   0.455861 
  C  -1.799997  -2.235476  -0.370230 
  C  -0.379405  -1.873737  -0.125903 
  C  -0.887595   0.789778  -1.452108 
  C  -2.279597   0.878574  -1.518561 
  C  -2.878346   1.545157  -2.593231 
  C  -2.085180   2.129055  -3.585748 
  C  -0.692137   2.032384  -3.514962 
  C  -0.087974   1.357826  -2.445626 
  C  -0.959397   0.691386   1.456247 
  C  -2.133594   0.154885   1.982716 
  C  -2.751657   0.784802   3.071810 
  C  -2.199363   1.944862   3.622814 
  C  -1.015938   2.471165   3.096216 
  C  -0.394197   1.844896   2.010104 
  H  -3.529396  -3.302838   0.264151 
  H  -2.122503  -3.403873   1.382873 
  H  -2.228314  -1.865572  -1.306539 
  H   0.247958  -2.267914  -0.957513 
  H   0.016314  -2.345647   0.799967 
  H  -2.918099   0.446183  -0.747170 
  H  -3.962332   1.610401  -2.653769 
  H  -2.552107   2.660884  -4.412534 
  H  -0.075710   2.486382  -4.289571 
  H   1.002639   1.298557  -2.416714 
  H  -2.588663  -0.749937   1.574910 
  H  -3.665482   0.368294   3.489499 
  H  -2.688701   2.439167   4.458666 
  H  -0.572454   3.365015   3.531841 
  H   0.530350   2.278903   1.620921 
 Ni   3.600000   0.000000   0.000000 
  C   7.102922   1.110183  -2.961833 
  C   5.665528   1.352658  -3.432330 
  C   4.848244   0.427205  -2.517899 
  C   6.924770   0.089969  -1.826563 
  C   6.275499   0.797766  -0.621119 
  C   4.827843   1.013775  -1.097564 
  C   6.276695  -0.083185   0.587260 
  H   6.790844   1.747906  -0.359534 
  H   4.501570   2.076339  -1.081488 
  C   5.779350  -0.766053  -2.361162 
  H   3.822762   0.252764  -2.906413 
  H   6.016424  -1.272886  -3.324834 
  H   5.407773  -1.525859  -1.637609 
  H   7.886576  -0.404788  -1.568708 
  C   5.063976  -0.539135   1.032487 
  H   7.196804  -0.359041   1.086206 
  H   4.972446  -1.184460   1.895626 
  H   7.643248   2.028320  -2.645027 
  H   7.669515   0.627355  -3.789987 
  H   5.573576   1.001028  -4.484656 
  H   5.336186   2.412693  -3.374696 
53

  P   0.000000   0.000000   0.000000 
  C  -1.020775  -2.673450   2.221569 
  C  -0.116157  -2.423897   1.274625 
  C  -0.449437  -1.864773  -0.064310 
  C  -0.883050   0.757280  -1.473362 
  C  -1.757688   0.052086  -2.298515 
  C  -2.375017   0.705959  -3.373120 
  C  -2.114283   2.058003  -3.615120 
  C  -1.226253   2.755908  -2.790396 
  C  -0.603411   2.104563  -1.719446 
  C  -1.037509   0.689599   1.407134 
  C  -2.431676   0.621159   1.414637 
  C  -3.144885   1.210005   2.465391 
  C  -2.462311   1.856693   3.501979 
  C  -1.066026   1.913118   3.490334 
  C  -0.348025   1.325196   2.440295 
  H  -0.761160  -3.062208   3.195321 
  H  -2.079557  -2.500556   2.106208 
  H   0.945461  -2.633879   1.443457 
  H  -1.506423  -2.023361  -0.340862 
  H   0.159755  -2.338048  -0.861614 
  H  -1.975412  -1.002173  -2.134586 
  H  -3.058097   0.159142  -4.019673 
  H  -2.599608   2.572037  -4.444837 
  H  -1.012593   3.804885  -2.981964 
  H   0.089700   2.671958  -1.094517 
  H  -2.983038   0.120127   0.619420 
  H  -4.232667   1.166890   2.473771 
  H  -3.019668   2.312879   4.319559 
  H  -0.532718   2.414062   4.296481 
  H   0.741496   1.376197   2.458739 
 Ni   3.600000   0.000000   0.000000 
  C   7.102922   1.110183  -2.961833 
  C   5.665528   1.352658  -3.432330 
  C   4.848244   0.427205  -2.517899 
  C   6.924770   0.089969  -1.826563 
  C   6.275499   0.797766  -0.621119 
  C   4.827843   1.013775  -1.097564 
  C   6.276695  -0.083185   0.587260 
  H   6.790844   1.747906  -0.359534 
  H   4.501570   2.076339  -1.081488 
  C   5.779350  -0.766053  -2.361162 
  H   3.822762   0.252764  -2.906413 
  H   6.016424  -1.272886  -3.324834 
  H   5.407773  -1.525859  -1.637609 
  H   7.886576  -0.404788  -1.568708 
  C   5.063976  -0.539135   1.032487 
  H   7.196804  -0.359041   1.086206 
  H   4.972446  -1.184460   1.895626 
  H   7.643248   2.028320  -2.645027 
  H   7.669515   0.627355  -3.789987 
  H   5.573576   1.001028  -4.484656 
  H   5.336186   2.412693  -3.374696 
53

  P   0.000000   0.000000   0.000000 
  C   0.003999  -2.901691  -2.283994 
  C   0.418457  -2.466393  -1.093597 
  C  -0.481316  -1.854397  -0.078014 
  C  -0.833199   0.807546  -1.471873 
  C  -1.718393   0.143752  -2.320049 
  C  -2.243640   0.815296  -3.431908 
  C  -1.884243   2.140566  -3.688241 
  C  -1.008944   2.805507  -2.823218 
  C  -0.476836   2.138529  -1.714036 
  C  -1.055503   0.628953   1.417923 
  C  -2.450447   0.599549   1.375673 
  C  -3.185326   1.183201   2.413973 
  C  -2.522175   1.789184   3.487109 
  C  -1.125647   1.781046   3.539997 
  C  -0.386372   1.192695   2.504430 
  H   0.669870  -3.314598  -3.025949 
  H  -1.020931  -2.876232  -2.621428 
  H   1.472858  -2.543669  -0.800292 
  H  -0.319440  -2.291524   0.929165 
  H  -1.552239  -1.997100  -0.306962 
  H  -2.012249  -0.893881  -2.153410 
  H  -2.937637   0.307452  -4.098401 
  H  -2.283541   2.658873  -4.557555 
  H  -0.743276   3.844359  -3.014415 
  H   0.213198   2.681795  -1.065000 
  H  -2.984122   0.135824   0.545840 
  H  -4.273053   1.173038   2.383030 
  H  -3.095202   2.273142   4.276799 
  H  -0.610864   2.243352   4.380116 
  H   0.703396   1.191909   2.570254 
 Ni   3.600000   0.000000   0.000000 
  C   7.102922   1.110183  -2.961833 
  C   5.665528   1.352658  -3.432330 
  C   4.848244   0.427205  -2.517899 
  C   6.924770   0.089969  -1.826563 
  C   6.275499   0.797766  -0.621119 
  C   4.827843   1.013775  -1.097564 
  C   6.276695  -0.083185   0.587260 
  H   6.790844   1.747906  -0.359534 
  H   4.501570   2.076339  -1.081488 
  C   5.779350  -0.766053  -2.361162 
  H   3.822762   0.252764  -2.906413 
  H   6.016424  -1.272886  -3.324834 
  H   5.407773  -1.525859  -1.637609 
  H   7.886576  -0.404788  -1.568708 
  C   5.063976  -0.539135   1.032487 
  H   7.196804  -0.359041   1.086206 
  H   4.972446  -1.184460   1.895626 
  H   7.643248   2.028320  -2.645027 
  H   7.669515   0.627355  -3.789987 
  H   5.573576   1.001028  -4.484656 
  H   5.336186   2.412693  -3.374696 
53

  P   0.000000   0.000000   0.000000 
  C   0.936611  -3.614932  -0.966590 
  C   0.194085  -2.521519  -1.140479 
  C  -0.546836  -1.839126  -0.045312 
  C  -0.811907   0.762329  -1.513889 
  C  -2.069020   0.373660  -1.979299 
  C  -2.611529   0.990971  -3.112808 
  C  -1.892764   1.993336  -3.773715 
  C  -0.634251   2.377409  -3.301789 
  C  -0.087780   1.758217  -2.170155 
  C  -1.025205   0.656442   1.426453 
  C  -1.937056   1.700361   1.267059 
  C  -2.599561   2.215140   2.388552 
  C  -2.360895   1.675834   3.655482 
  C  -1.452122   0.623709   3.805430 
  C  -0.772955   0.118570   2.691694 
  H   1.448529  -4.112045  -1.777455 
  H   1.096864  -4.099020  -0.016038 
  H   0.071730  -2.088909  -2.138144 
  H  -0.337875  -2.286682   0.947249 
  H  -1.639546  -1.923842  -0.195788 
  H  -2.642232  -0.407023  -1.478532 
  H  -3.592717   0.693100  -3.478903 
  H  -2.309704   2.474022  -4.657641 
  H  -0.070925   3.158716  -3.808552 
  H   0.899063   2.075611  -1.830233 
  H  -2.148147   2.136546   0.289181 
  H  -3.301756   3.038985   2.272276 
  H  -2.881415   2.070652   4.525196 
  H  -1.272013   0.196884   4.790550 
  H  -0.051946  -0.685742   2.845084 
 Ni   3.600000   0.000000   0.000000 
  C   7.102922   1.110183  -2.961833 
  C   5.665528   1.352658  -3.432330 
  C   4.848244   0.427205  -2.517899 
  C   6.924770   0.089969  -1.826563 
  C   6.275499   0.797766  -0.621119 
  C   4.827843   1.013775  -1.097564 
  C   6.276695  -0.083185   0.587260 
  H   6.790844   1.747906  -0.359534 
  H   4.501570   2.076339  -1.081488 
  C   5.779350  -0.766053  -2.361162 
  H   3.822762   0.252764  -2.906413 
  H   6.016424  -1.272886  -3.324834 
  H   5.407773  -1.525859  -1.637609 
  H   7.886576  -0.404788  -1.568708 
  C   5.063976  -0.539135   1.032487 
  H   7.196804  -0.359041   1.086206 
  H   4.972446  -1.184460   1.895626 
  H   7.643248   2.028320  -2.645027 
  H   7.669515   0.627355  -3.789987 
  H   5.573576   1.001028  -4.484656 
  H   5.336186   2.412693  -3.374696 
53

  P   0.000000   0.000000   0.000000 
  C  -2.232364  -3.497235  -0.475737 
  C  -1.843072  -2.231420  -0.315242 
  C  -0.413062  -1.864003  -0.105031 
  C  -0.855627   0.779016  -1.474902 
  C  -2.243904   0.895539  -1.566958 
  C  -2.809493   1.576000  -2.651857 
  C  -1.982229   2.140123  -3.629069 
  C  -0.594725   1.997357  -3.542845 
  C  -0.025293   1.313194  -2.461460 
  C  -0.946382   0.694411   1.457937 
  C  -1.162651  -0.065776   2.608258 
  C  -1.729763   0.537049   3.739320 
  C  -2.062778   1.893878   3.724240 
  C  -1.843648   2.649626   2.567990 
  C  -1.289887   2.050417   1.431542 
  H  -3.263057  -3.780276  -0.628378 
  H  -1.558994  -4.341448  -0.466151 
  H  -2.577525  -1.423466  -0.330987 
  H   0.215674  -2.280362  -0.925175 
  H  -0.030426  -2.343934   0.821485 
  H  -2.905956   0.472965  -0.806156 
  H  -3.889187   1.663565  -2.733994 
  H  -2.414567   2.695716  -4.457838 
  H   0.042710   2.421314  -4.315937 
  H   1.061799   1.223854  -2.412502 
  H  -0.896560  -1.122419   2.659427 
  H  -1.903132  -0.052987   4.637926 
  H  -2.488948   2.363892   4.607770 
  H  -2.094593   3.709370   2.557123 
  H  -1.129878   2.665429   0.544397 
 Ni   3.600000   0.000000   0.000000 
  C   7.102922   1.110183  -2.961833 
  C   5.665528   1.352658  -3.432330 
  C   4.848244   0.427205  -2.517899 
  C   6.924770   0.089969  -1.826563 
  C   6.275499   0.797766  -0.621119 
  C   4.827843   1.013775  -1.097564 
  C   6.276695  -0.083185   0.587260 
  H   6.790844   1.747906  -0.359534 
  H   4.501570   2.076339  -1.081488 
  C   5.779350  -0.766053  -2.361162 
  H   3.822762   0.252764  -2.906413 
  H   6.016424  -1.272886  -3.324834 
  H   5.407773  -1.525859  -1.637609 
  H   7.886576  -0.404788  -1.568708 
  C   5.063976  -0.539135   1.032487 
  H   7.196804  -0.359041   1.086206 
  H   4.972446  -1.184460   1.895626 
  H   7.643248   2.028320  -2.645027 
  H   7.669515   0.627355  -3.789987 
  H   5.573576   1.001028  -4.484656 
  H   5.336186   2.412693  -3.374696 
53

  P   0.000000   0.000000   0.000000 
  C  -0.032668  -2.889248  -2.331786 
  C   0.395634  -2.455454  -1.145205 
  C  -0.501151  -1.847652  -0.124304 
  C  -0.848664   0.796158  -1.470298 
  C  -2.068531   1.468752  -1.388982 
  C  -2.575881   2.115710  -2.523022 
  C  -1.863604   2.087489  -3.725505 
  C  -0.654755   1.389929  -3.804980 
  C  -0.144488   0.739846  -2.675577 
  C  -0.980182   0.640652   1.466072 
  C  -2.167294   0.056349   1.909881 
  C  -2.848837   0.616427   2.997160 
  C  -2.343470   1.756185   3.631427 
  C  -1.143298   2.323585   3.193756 
  C  -0.453394   1.762836   2.111306 
  H   0.617524  -3.329874  -3.073012 
  H  -1.061395  -2.839679  -2.656174 
  H   1.448454  -2.547232  -0.857587 
  H  -0.350098  -2.313078   0.871152 
  H  -1.570479  -1.969181  -0.374629 
  H  -2.647650   1.512158  -0.465362 
  H  -3.523212   2.647473  -2.460590 
  H  -2.243838   2.611017  -4.600069 
  H  -0.099438   1.358360  -4.740190 
  H   0.799290   0.197646  -2.767994 
  H  -2.582898  -0.832191   1.434690 
  H  -3.775921   0.163925   3.342511 
  H  -2.889396   2.202709   4.461465 
  H  -0.745794   3.206519   3.690034 
  H   0.485366   2.225871   1.797219 
 Ni   3.600000   0.000000   0.000000 
  C   7.102922   1.110183  -2.961833 
  C   5.665528   1.352658  -3.432330 
  C   4.848244   0.427205  -2.517899 
  C   6.924770   0.089969  -1.826563 
  C   6.275499   0.797766  -0.621119 
  C   4.827843   1.013775  -1.097564 
  C   6.276695  -0.083185   0.587260 
  H   6.790844   1.747906  -0.359534 
  H   4.501570   2.076339  -1.081488 
  C   5.779350  -0.766053  -2.361162 
  H   3.822762   0.252764  -2.906413 
  H   6.016424  -1.272886  -3.324834 
  H   5.407773  -1.525859  -1.637609 
  H   7.886576  -0.404788  -1.568708 
  C   5.063976  -0.539135   1.032487 
  H   7.196804  -0.359041   1.086206 
  H   4.972446  -1.184460   1.895626 
  H   7.643248   2.028320  -2.645027 
  H   7.669515   0.627355  -3.789987 
  H   5.573576   1.001028  -4.484656 
  H   5.336186   2.412693  -3.374696 
53

  P   0.000000   0.000000   0.000000 
  C  -2.335992  -2.268173  -1.643930 
  C  -1.839250  -2.154362  -0.412692 
  C  -0.413629  -1.870745  -0.106260 
  C  -0.848591   0.786095  -1.474876 
  C  -2.068796   1.451384  -1.356076 
  C  -2.597141   2.126133  -2.463238 
  C  -1.910137   2.123843  -3.680058 
  C  -0.695476   1.440600  -3.794353 
  C  -0.159215   0.769443  -2.689461 
  C  -0.950510   0.694486   1.459763 
  C  -2.129076   0.161341   1.983761 
  C  -2.744424   0.789284   3.074145 
  C  -2.186359   1.944608   3.631949 
  C  -0.998537   2.464237   3.111232 
  C  -0.377937   1.839589   2.022523 
  H  -3.369894  -2.508884  -1.843086 
  H  -1.759732  -2.122102  -2.543445 
  H  -2.479270  -2.295495   0.464098 
  H   0.257293  -2.301940  -0.879495 
  H  -0.105798  -2.333123   0.853920 
  H  -2.626473   1.468739  -0.416544 
  H  -3.544296   2.655266  -2.373651 
  H  -2.320377   2.653032  -4.538942 
  H  -0.163249   1.436956  -4.741459 
  H   0.794122   0.254831  -2.802618 
  H  -2.590627  -0.733771   1.563293 
  H  -3.663134   0.379772   3.489530 
  H  -2.678349   2.439682   4.466800 
  H  -0.551594   3.354014   3.552439 
  H   0.549247   2.269545   1.637002 
 Ni   3.600000   0.000000   0.000000 
  C   7.102922   1.110183  -2.961833 
  C   5.665528   1.352658  -3.432330 
  C   4.848244   0.427205  -2.517899 
  C   6.924770   0.089969  -1.826563 
  C   6.275499   0.797766  -0.621119 
  C   4.827843   1.013775  -1.097564 
  C   6.276695  -0.083185   0.587260 
  H   6.790844   1.747906  -0.359534 
  H   4.501570   2.076339  -1.081488 
  C   5.779350  -0.766053  -2.361162 
  H   3.822762   0.252764  -2.906413 
  H   6.016424  -1.272886  -3.324834 
  H   5.407773  -1.525859  -1.637609 
  H   7.886576  -0.404788  -1.568708 
  C   5.063976  -0.539135   1.032487 
  H   7.196804  -0.359041   1.086206 
  H   4.972446  -1.184460   1.895626 
  H   7.643248   2.028320  -2.645027 
  H   7.669515   0.627355  -3.789987 
  H   5.573576   1.001028  -4.484656 
  H   5.336186   2.412693  -3.374696 
53

  P   0.000000   0.000000   0.000000 
  C   1.211072  -3.000279  -1.399460 
  C   0.024770  -2.402996  -1.285497 
  C  -0.522236  -1.844662  -0.016396 
  C  -0.904065   0.645386  -1.517305 
  C  -0.127374   1.205766  -2.529625 
  C  -0.751419   1.702564  -3.682670 
  C  -2.138985   1.625578  -3.814079 
  C  -2.909641   1.042052  -2.801766 
  C  -2.292647   0.554704  -1.644906 
  C  -0.976852   0.775535   1.402018 
  C  -0.927696   2.170845   1.494257 
  C  -1.565317   2.817136   2.559677 
  C  -2.263543   2.073092   3.516426 
  C  -2.300513   0.679265   3.421257 
  C  -1.653068   0.024759   2.364390 
  H   1.583388  -3.399711  -2.332790 
  H   1.905376  -3.132413  -0.580597 
  H  -0.636503  -2.295895  -2.153683 
  H  -0.110862  -2.344813   0.879471 
  H  -1.622652  -1.953996   0.028297 
  H   0.960267   1.268808  -2.455429 
  H  -0.153401   2.147752  -4.475984 
  H  -2.623389   2.025260  -4.703810 
  H  -3.990070   0.971930  -2.916080 
  H  -2.909637   0.119024  -0.859266 
  H  -0.408190   2.781177   0.751002 
  H  -1.514269   3.901670   2.643894 
  H  -2.776894   2.577666   4.333885 
  H  -2.835574   0.101415   4.172433 
  H  -1.702182  -1.061870   2.321855 
 Ni   3.600000   0.000000   0.000000 
  C   7.102922   1.110183  -2.961833 
  C   5.665528   1.352658  -3.432330 
  C   4.848244   0.427205  -2.517899 
  C   6.924770   0.089969  -1.826563 
  C   6.275499   0.797766  -0.621119 
  C   4.827843   1.013775  -1.097564 
  C   6.276695  -0.083185   0.587260 
  H   6.790844   1.747906  -0.359534 
  H   4.501570   2.076339  -1.081488 
  C   5.779350  -0.766053  -2.361162 
  H   3.822762   0.252764  -2.906413 
  H   6.016424  -1.272886  -3.324834 
  H   5.407773  -1.525859  -1.637609 
  H   7.886576  -0.404788  -1.568708 
  C   5.063976  -0.539135   1.032487 
  H   7.196804  -0.359041   1.086206 
  H   4.972446  -1.184460   1.895626 
  H   7.643248   2.028320  -2.645027 
  H   7.669515   0.627355  -3.789987 
  H   5.573576   1.001028  -4.484656 
  H   5.336186   2.412693  -3.374696 
