10

C        0.5622385657     -0.0963012039      0.0644550161                 
C        0.3441678542     -0.2381730673      1.3737929392                 
C        1.3452393090      0.2014278297      2.3664772291                 
C        1.1271850297      0.0595209434      3.6758140935                 
H        1.4815587979      0.3462034449     -0.3078132680                 
H       -0.1863751739     -0.4259245057     -0.6487321885                 
H       -0.5885078341     -0.6857591250      1.7067145747                 
H        2.2779042051      0.6490368916      2.0335562881                 
H        0.2078801611     -0.3830164533      4.0480813899                 
H        1.8758008164      0.3891398859      4.3890011641                 
