  22
Step 12
  C      3.31502854     -1.14428477     -0.07833863
  C      2.27368191     -0.08290184      0.24400427
  N      1.01775129     -0.33119131     -0.22147007
  C     -0.09692549      0.54620720      0.07392889
  C     -1.37806532     -0.29036768     -0.08159080
  N     -2.49539554      0.26339992      0.46063556
  C     -3.80842307     -0.35269813      0.36912712
  O      2.55113792      0.93207195      0.87781597
  C     -0.12012907      1.78271184     -0.84626356
  O     -1.37498666     -1.36563041     -0.67688002
  H      4.12904645     -0.68104364     -0.64462588
  H      2.91918708     -1.98892782     -0.65070653
  H      3.74116590     -1.51580717      0.85884633
  H      0.76711436     -1.20387519     -0.67179930
  H      0.00211259      0.88849993      1.11214377
  H     -2.40559063      1.13949554      0.95541137
  H     -4.51802867      0.30542439     -0.14557452
  H     -4.20267956     -0.59135411      1.36362200
  H     -3.69646626     -1.27532171     -0.20134847
  H     -0.94802578      2.45554030     -0.59367880
  H     -0.22744645      1.47893665     -1.89284377
  H      0.81910346      2.32835004     -0.72656094
  22
Step 17
  C      2.68428027     -1.08649423     -1.07658991
  C      1.43764723     -0.27868144     -0.75112617
  N      1.08519533     -0.23939519      0.56148774
  C     -0.01031015      0.54587042      1.16150592
  C     -1.43096499     -0.00151903      0.86895844
  N     -1.75019004     -0.13876441     -0.44216906
  C     -3.04815983     -0.61836881     -0.87853737
  O      0.80778926      0.29847342     -1.64193616
  C      0.09832240      2.04645209      0.84778740
  O     -2.19309694     -0.23708699      1.80258638
  H      2.43759533     -1.81684693     -1.85267184
  H      3.11428148     -1.60798951     -0.21610339
  H      3.43919152     -0.41166148     -1.49301489
  H      1.62727464     -0.80165380      1.20111399
  H      0.09578035      0.40749321      2.23935300
  H     -1.03119692      0.08231800     -1.12897404
  H     -2.94961330     -1.53114107     -1.47879225
  H     -3.56725345      0.13836900     -1.47944033
  H     -3.64161887     -0.83639523      0.01057400
  H     -0.71006138      2.58100721      1.35732517
  H      0.02781624      2.23620201     -0.22458996
  H      1.05472179      2.43957276      1.20942233
