  6
Step 2
  C      0.66560204      0.00000000      0.00000000
  C     -0.66555970      0.00000000      0.00000000
  H     -1.23967945      0.92228617     -0.05058564
  H      1.23965778     -0.92231833      0.05060017
  H      1.23965778      0.92231833     -0.05060017
  H     -1.23967945     -0.92228617      0.05058564
