15

C 0.000000 0.000000 0.000000
 N 0.000000 0.000000 1.494572
 C 1.067812 0.000000 2.232775
 N 2.268051 -0.037063 1.696380
 C 2.447007 -0.181468 0.277572
 C 1.283921 -0.037646 -0.528404
 O 0.957692 0.042836 3.552220
 C 0.928127 1.334573 -1.038763
 O -1.122992 0.052095 -0.485111
 H -0.897549 0.042393 1.933133
 H 3.408607 0.153662 -0.061466
 H 3.045000 -0.086115 2.317471
 H 0.941999 2.068713 -0.236335
 H -0.061896 1.322810 -1.472862
 H 1.625043 1.673159 -1.801715
