5                                                                                                         
                                                                                                          
C        0.0000000000      0.0000000000      0.0000000000                                                 
H        1.0641400000      0.0000000000      0.0000000000                                                 
H       -0.5491900000      0.0000000000     -0.9115000000                                                 
C       -0.6532100000      0.0000000000      1.1561700000                                                 
O       -1.6288679093     -0.0534552271      1.8585707061    
