6

  B     -2.35330285     -0.36214677     -0.26327912
  N     -1.42908691      0.56361934      0.22417517
  H     -2.23026857     -0.76469220     -1.38406550
  H     -3.22416240     -0.75303043      0.45855394
  H     -1.50321926      0.98359541      1.14279875
  H     -0.69850405      0.99200398     -0.33889060
