18

C        0.0819073319      0.0253437105      1.9561741915                 
C        0.2106571490     -0.0015655062     -3.1798723260                 
C        0.1026781837     -1.1042286956      1.1614958843                 
C        0.1012631283      1.1465272323      1.1496678401                 
C        0.1356082276     -0.7123892149     -0.1644665227                 
C        0.1346946324      0.7408153732     -0.1721027576                 
C        0.1630258633     -1.5969827350     -1.2315699222                 
C        0.1610072108      1.6141788452     -1.2484450091                 
C        0.1966408614     -1.2646421219     -2.5825466401                 
C        0.1950489969      1.2677006597     -2.5958540743                 
H        0.0548074162      0.0310098039      3.0376226763                 
H        0.2378276346     -0.0072422578     -4.2633788818                 
H        0.0943534540     -2.1241191620      1.5247322117                 
H        0.0916536052      2.1701675649      1.5021655350                 
H        0.1579663206     -2.6557338123     -0.9976740997                 
H        0.1546150174      2.6753224266     -1.0256890253                 
H        0.2144441021     -2.1045519854     -3.2672329515                 
H        0.2118008648      2.1003898748     -3.2893301287                 
