18

C       -1.4120931892      1.0243804208     -0.0000000000                 
C       -0.0334149426      1.0324732717     -0.0000000000                 
C       -2.2710266005      2.2580325100      0.2170072061                 
C       -2.2564848164     -0.2192701983     -0.2170072061                 
C        0.8109766846      2.2761238983      0.2170071633                 
C        0.8255184688     -0.2011788251     -0.2170071633                 
H        0.2788839427      3.2224724532      0.3833454353                 
H        1.4600549773      2.4337831326     -0.6701743973                 
H        1.4618791729      2.1230261541      1.1036509556                 
H        0.3045721567     -1.1537087266     -0.3833454353                 
H        1.4764028903     -0.3512072693      0.6701743973                 
H        1.4745787946     -0.0404502902     -1.1036509556                 
H       -1.7243920746     -1.1656187512     -0.3833454898                 
H       -2.9073872549     -0.0661724246     -1.1036510314                 
H       -2.9055631590     -0.3769294492      0.6701743135                 
H       -1.7500802884      3.2105624096      0.3833454898                 
H       -2.9200868762      2.0973039462      1.1036510314                 
H       -2.9219110721      2.4080609702     -0.6701743135                 
