6
atoms
 C                  0.00000000    0.66545800   -0.00000100
 H                 -0.92356200    1.23964100    0.00000300
 H                  0.92356200    1.23964100    0.00000300
 C                  0.00000000   -0.66545800   -0.00000100
 H                  0.92356200   -1.23964100    0.00000300
 H                 -0.92356200   -1.23964100    0.00000300
 6
 Step 6
  C -0.041074 0.604885 0.073811
  H -0.774557 1.318864 0.418205
  H 0.587033 0.977028 -0.728930
  C -0.098487 -0.734734 0.505771
  H 0.782553 -1.361331 0.412945
  H -0.415944 -0.804715 -0.681793
