14
atoms optimized with avogadro
C       -1.9115628944     -0.8708659701     -0.0177763899                 
C       -1.6577541308      0.5930569364     -0.0210008122                 
C       -2.5865740039      1.5733327104     -0.0087009086                 
C       -4.0898677103      1.5378356865      0.0109542330                 
C       -4.9714068786      0.5148129193      0.0215065063                 
C       -4.6488180300     -0.9354983375      0.0157396899                 
H       -0.6141348452      0.8955725055     -0.0345787187                 
H       -2.1804144512      2.5812905178     -0.0137515806                 
H       -4.5431267884      2.5254996571      0.0177455946                 
H       -6.0281352461      0.7677331739      0.0355686811                 
H       -5.0620020906     -1.4146681775      0.9273782308                 
H       -5.0857715056     -1.4127349114     -0.8857752432                 
H       -1.4762709159     -1.3284192181     -0.9302321678                 
H       -1.4525443790     -1.3285285822      0.8829228953                 
