16

C         -3.40874        1.18670       -0.01019
C         -2.29182        1.91958        0.01377
C         -0.96016        1.25922       -0.02323
C          0.23459        1.90366       -0.00356
H         -0.95474        0.17259       -0.06970
C          0.38724        3.40693        0.05969
C          1.50648        1.09470       -0.04651
H         -4.37785        1.67464        0.01705
H         -3.36699        0.10243       -0.05681
H         -2.39810        2.99370        0.06038
H         -0.55391        3.97922        0.09035
H          0.95289        3.75137       -0.83128
H          0.96475        3.67441        0.96928
H          1.31683        0.00082       -0.09201
H          2.10865        1.30288        0.86268
H          2.09675        1.38003       -0.94247
