14
 
C 0.000000 0.000000 0.000000
 C 0.000000 0.000000 1.467451
 C 1.151523 0.000000 2.244573
 C 1.157986 0.002285 3.685109
 C 2.309515 -0.001221 4.462218
 C 2.994955 1.213081 4.919444
 H 2.106979 -0.001954 1.745265
 H 0.202523 0.000044 4.184409
 H -0.956966 0.000890 1.961061
 H 3.266476 -0.002041 3.968598
 H -0.918564 0.001459 -0.551493
 H 0.923184 -0.001080 -0.546579
 H 3.883268 1.153683 5.515496
 H 2.616589 2.183716 4.663075
