14

 N 1.233155 0.150519 -0.682262
 C 0.042239 0.082278 0.053027
 C 0.027654 0.006069 1.401870
 C 1.285320 -0.035278 2.073018
 N 2.465943 0.032152 1.358338
 C 2.532918 -0.616273 0.007390
 O -1.051051 0.164133 -0.743672
 N 2.924792 -1.938501 -0.164476
 H 3.227544 -2.338411 0.699283
 H 3.620110 -2.050212 -0.875227
 H 1.261389 -0.449851 -1.483845
 H 1.365435 -0.096923 3.137651
 H -0.899003 0.010123 1.942513

