6

C        0.0080977287      0.0127963502      0.0083286491                 
N        1.2905214551     -0.0131861231     -0.0085756777                 
H       -0.5620470211     -0.6120946160     -0.6723380219                 
H        1.7890316875     -0.6275342416     -0.6685173780                 
H       -0.5181396922      0.6599008803      0.7034477370                 
H        1.8307158420      0.5801177502      0.6376746916                 
